<?xml version="1.0" encoding="UTF-8"?>

<!-- generated on 2022-04-07 10:28:56 by Eclipse SUMO polyconvert Version 1.11.0
<configuration xmlns:xsi="http://www.w3.org/2001/XMLSchema-instance" xsi:noNamespaceSchemaLocation="http://sumo.dlr.de/xsd/polyconvertConfiguration.xsd">

    <input>
        <net-file value="osm.net.xml"/>
        <osm-files value="osm_bbox.osm.xml"/>
        <osm.keep-full-type value="true"/>
        <type-file value="C:\Users\roope\Sumo\data\typemap\osmPolyconvert.typ.xml"/>
    </input>

    <output>
        <output-file value="osm.poly.xml"/>
    </output>

    <processing>
        <poi-layer-offset value="5"/>
    </processing>

    <report>
        <verbose value="true"/>
    </report>

</configuration>
-->

<additional xmlns:xsi="http://www.w3.org/2001/XMLSchema-instance" xsi:noNamespaceSchemaLocation="http://sumo.dlr.de/xsd/additional_file.xsd">
    <location netOffset="-393722.21,-6673610.19" convBoundary="-948679.33,-575127.36,24775.89,44071.81" origBoundary="10.860532,53.941410,25.526918,60.580650" projParameter="+proj=utm +zone=35 +ellps=WGS84 +datum=WGS84 +units=m +no_defs"/>

    <poly id="1002329140" type="landuse.construction" color="194,194,130" fill="1" layer="-3.00" shape="2005.649985,1103.346919 2009.557792,1106.344502 2022.546179,1116.315260 2022.809252,1120.486431 2021.101716,1122.863986 2011.934049,1134.836586 2008.086438,1138.623440 1995.487256,1149.512691 1989.699008,1154.892618 1970.435115,1141.769054 1977.092314,1132.230235 1981.042506,1124.841198 1988.693645,1113.190314 1993.226500,1107.946452 1996.479195,1102.750217 1999.137046,1101.404166 2002.478693,1101.665526 2005.649985,1103.346919"/>
    <poly id="1002329142" type="landuse.construction" color="194,194,130" fill="1" layer="-3.00" shape="2058.372805,1134.605775 2031.504008,1115.280055 2022.546179,1116.315260 2009.557792,1106.344502 2024.960643,1087.341255 2024.243522,1083.784747 2011.537787,1074.975953 2023.714653,1058.014664 2027.821515,1055.145324 2033.143917,1055.606580 2066.312433,1065.671299 2069.117672,1065.992569 2071.233005,1066.244341 2076.532240,1065.892873 2083.748174,1064.662252 2087.748555,1065.261515 2104.450726,1076.486286 2114.853527,1084.112916 2115.470178,1089.990062 2113.480074,1096.086266 2111.207875,1100.262745 2084.069202,1120.948054 2067.036663,1134.158469 2062.584403,1135.611288 2058.372805,1134.605775"/>
    <poly id="1002341615" type="amenity.parking" color="184,184,179" fill="1" layer="-1.00" shape="3556.702911,2201.098002 3563.099447,2185.173397 3588.215732,2194.608331 3593.734983,2197.016276 3594.291893,2197.691506 3592.699566,2202.015096 3579.048625,2236.696319 3574.387674,2234.832590 3578.964658,2223.828568 3580.289286,2220.637924 3579.672215,2220.387818 3580.358060,2218.741692 3583.247063,2211.417668 3556.702911,2201.098002"/>
    <poly id="1002341616" type="building.construction" color="255,230,230" fill="1" layer="-1.00" shape="3712.708589,2293.820121 3723.529734,2294.263299 3742.393671,2302.671110 3741.730085,2305.508873 3738.498204,2304.763748 3737.029538,2310.732960 3758.340976,2315.450786 3756.294459,2324.745635 3735.005548,2320.038334 3708.185412,2314.071096 3712.708589,2293.820121"/>
    <poly id="1003284015" type="amenity.parking" color="184,184,179" fill="1" layer="-1.00" shape="3470.992264,264.310255 3465.786029,266.038768 3461.653417,258.577647 3460.028789,251.112945 3458.792339,240.873894 3458.567155,229.893292 3457.980037,219.658289 3453.822005,210.504164 3447.520100,202.268269 3438.290563,196.878075 3427.800136,194.208775 3380.524277,185.575535 3384.872029,165.540904 3441.879053,176.274277 3449.373817,157.042768 3477.009660,171.131265 3490.565471,182.183257 3498.355304,194.600615 3503.752737,208.177159 3508.496164,224.747231 3510.432778,237.596368 3511.539339,254.480259 3511.442741,271.397927 3511.235810,284.385241 3494.351509,285.204715 3494.856513,271.373309 3492.174149,271.292624 3491.560669,238.772510 3489.972847,230.047612 3474.732204,190.806769 3459.848248,180.081853 3456.225793,194.145685 3460.575455,190.168063 3466.123236,196.842863 3471.471650,207.089006 3474.237619,215.479953 3476.156864,225.532688 3476.809364,238.295301 3478.002201,248.959012 3481.590197,260.146038 3484.542956,264.520292 3479.257947,267.198147 3470.992264,264.310255"/>
    <poly id="1008932534" type="leisure.pitch" color="207,245,201" fill="1" layer="-2.00" shape="4059.968210,2741.504772 4041.984824,2869.816599 4120.768398,2880.808257 4138.731976,2752.486325 4059.968210,2741.504772"/>
    <poly id="1008932534#1" type="sport.multi" color="79,230,125" fill="1" layer="-2.00" shape="4059.968210,2741.504772 4041.984824,2869.816599 4120.768398,2880.808257 4138.731976,2752.486325 4059.968210,2741.504772"/>
    <poly id="100967999" type="landuse.residential" color="235,235,227" fill="1" layer="-3.00" shape="3886.007618,2535.881048 3867.280854,2521.028101 3839.546450,2494.036571 3836.942654,2492.148340 3831.571242,2488.265042 3823.017950,2487.791470 3815.093854,2496.515494 3813.366934,2498.413598 3801.737937,2510.283463 3802.068130,2518.308265 3802.374619,2533.008348 3802.493338,2536.058185 3816.813995,2548.616219 3827.538905,2558.322146 3858.832369,2589.448221 3869.642277,2599.029311 3888.759631,2577.534252 3895.092435,2570.403795 3895.544165,2569.900862 3896.479626,2568.849528 3899.597729,2565.341372 3906.735734,2555.079524 3899.564978,2547.925903 3891.002146,2540.766692 3888.086067,2537.427445 3886.007618,2535.881048"/>
    <poly id="1011177636" type="landuse.meadow" color="194,194,130" fill="1" layer="-3.00" shape="3647.925573,3136.528895 3646.265534,3131.115435 3650.846684,3128.201125 3658.980787,3129.989730 3664.643133,3126.877952 3673.032214,3115.622174 3684.093465,3105.539460 3695.849304,3098.078176 3705.240290,3094.861871 3715.391070,3096.594038 3721.086599,3100.000047 3728.362802,3104.609748 3729.893815,3109.380568 3728.951255,3114.521615 3730.402442,3127.518171 3732.746193,3138.929685 3731.328669,3143.939192 3729.536814,3146.474319 3725.342936,3146.591931 3698.968794,3142.673915 3678.616673,3142.932876 3658.708362,3142.410631 3650.729097,3140.606539 3647.925573,3136.528895"/>
    <poly id="1011177636#1" type="natural.wood" color="140,196,107" fill="1" layer="-4.00" shape="3647.925573,3136.528895 3646.265534,3131.115435 3650.846684,3128.201125 3658.980787,3129.989730 3664.643133,3126.877952 3673.032214,3115.622174 3684.093465,3105.539460 3695.849304,3098.078176 3705.240290,3094.861871 3715.391070,3096.594038 3721.086599,3100.000047 3728.362802,3104.609748 3729.893815,3109.380568 3728.951255,3114.521615 3730.402442,3127.518171 3732.746193,3138.929685 3731.328669,3143.939192 3729.536814,3146.474319 3725.342936,3146.591931 3698.968794,3142.673915 3678.616673,3142.932876 3658.708362,3142.410631 3650.729097,3140.606539 3647.925573,3136.528895"/>
    <poly id="1013851116" type="building.yes" color="255,230,230" fill="1" layer="-1.00" shape="3851.744629,2579.517780 3838.688640,2567.358771 3845.235669,2560.355940 3858.296888,2572.503683 3851.744629,2579.517780"/>
    <poly id="1015269075" type="landuse.construction" color="194,194,130" fill="1" layer="-3.00" shape="1802.199890,1024.160880 1801.667367,1009.199714 1823.139363,1004.006967 1845.919709,1003.055973 1856.267331,998.804900 1906.261289,1029.404086 1869.945321,1070.254370 1824.700106,1059.466346 1802.199890,1024.160880"/>
    <poly id="1015892133" type="building.yes" color="255,230,230" fill="1" layer="-1.00" shape="6614.001327,2026.938868 6614.642042,2019.311011 6618.240734,2018.678128 6618.521038,2015.327709 6629.754687,2016.258529 6629.014602,2025.125918 6620.343327,2024.403863 6620.088084,2027.452749 6614.001327,2026.938868"/>
    <poly id="1015892143" type="man_made.pier" color="255,230,230" fill="0" layer="-1.00" shape="6610.260672,1787.229580 6621.383355,1783.450099"/>
    <poly id="1015892144" type="man_made.pier" color="255,230,230" fill="0" layer="-1.00" shape="6616.995706,1779.357713 6621.383355,1783.450099 6634.046875,1794.905196"/>
    <poly id="1015892146" type="man_made.pier" color="255,230,230" fill="0" layer="-1.00" shape="6655.273099,1740.140685 6663.726623,1738.952248 6670.806063,1746.982740"/>
    <poly id="1015892162" type="man_made.pier" color="255,230,230" fill="0" layer="-1.00" shape="6634.365758,2085.573660 6636.314561,2084.840880 6638.713537,2083.939842"/>
    <poly id="1015892163" type="man_made.pier" color="255,230,230" fill="0" layer="-1.00" shape="6636.314561,2084.840880 6626.887662,2059.224523"/>
    <poly id="1015892164" type="man_made.pier" color="255,230,230" fill="0" layer="-1.00" shape="6532.499393,2014.351627 6544.375730,2004.679176"/>
    <poly id="1015892165" type="building.yes" color="255,230,230" fill="1" layer="-1.00" shape="6553.670173,2006.286618 6548.178412,1997.288238 6553.693791,1993.928813 6559.191084,2002.927050 6553.670173,2006.286618"/>
    <poly id="1016389803" type="natural.wetland" color="181,209,209" fill="1" layer="-4.00" shape="2149.857155,1057.108788 2149.649007,1047.453649 2156.867366,1042.211592 2165.497709,1044.283820 2170.952338,1050.368775 2172.294755,1058.164179 2169.993952,1064.458619 2158.112592,1065.699230 2153.593206,1062.262025 2152.973456,1059.393598 2149.857155,1057.108788"/>
    <poly id="1016389804" type="natural.wetland" color="181,209,209" fill="1" layer="-4.00" shape="2224.484989,1110.723836 2232.720863,1107.514466 2250.932476,1113.314859 2268.555079,1128.648270 2261.441059,1136.193760 2252.701609,1131.639510 2246.659115,1128.479498 2231.956647,1118.879854 2227.900785,1116.911414 2224.484989,1110.723836"/>
    <poly id="1016389805" type="natural.wetland" color="181,209,209" fill="1" layer="-4.00" shape="2329.685020,1157.554811 2330.720706,1145.190011 2331.596571,1129.932551 2340.635939,1133.330731 2352.657998,1127.284047 2358.571570,1128.642714 2370.198650,1146.197181 2379.545788,1155.748831 2391.554229,1157.235374 2401.034082,1155.439668 2409.990785,1156.712035 2419.011998,1154.784534 2433.677836,1155.883789 2446.145667,1159.875805 2460.938999,1170.554582 2459.019126,1175.233418 2455.856147,1176.181169 2450.026363,1172.101065 2441.251777,1163.168152 2429.359959,1161.488707 2421.079134,1159.205378 2413.543890,1159.931820 2405.621600,1160.312686 2384.438252,1165.304397 2375.434412,1163.153129 2367.090342,1158.253096 2358.854509,1148.569631 2352.044561,1143.971501 2347.705980,1144.351006 2334.379612,1157.209745 2329.685020,1157.554811"/>
    <poly id="1016389806" type="leisure.playground" color="207,245,201" fill="1" layer="-2.00" shape="2190.296270,1264.479011 2193.269400,1259.201762 2213.732872,1280.226212 2208.934998,1284.151309 2190.296270,1264.479011"/>
    <poly id="1016506105" type="natural.scrub" color="140,196,107" fill="1" layer="-4.00" shape="2171.725564,1186.949929 2199.096830,1189.659138 2203.973662,1189.676440 2277.360079,1198.755431 2279.160843,1180.719323 2257.584598,1175.393308 2243.972031,1170.364735 2237.930124,1172.687120 2222.891564,1174.674738 2208.341455,1175.890797 2194.499400,1185.031799 2171.725564,1186.949929"/>
    <poly id="1016958404" type="building.carport" color="255,230,230" fill="1" layer="-1.00" shape="2377.868177,1321.159611 2382.201009,1317.849670 2391.399157,1330.180190 2386.764634,1333.610117 2381.416777,1326.374099 2377.868177,1321.159611"/>
    <poly id="1016958413" type="amenity.parking" color="184,184,179" fill="1" layer="-1.00" shape="2176.387611,1235.579472 2195.574831,1226.743224 2192.264185,1230.102315 2179.170536,1236.291464 2176.387611,1235.579472"/>
    <poly id="1016958414" type="building.yes" color="255,230,230" fill="1" layer="-1.00" shape="2153.351729,1271.168474 2156.824624,1266.300411 2159.213824,1267.993039 2155.740928,1272.861100 2153.351729,1271.168474"/>
    <poly id="1016958415" type="building.yes" color="255,230,230" fill="1" layer="-1.00" shape="2144.344899,1260.136815 2147.988360,1255.219318 2152.130915,1258.288365 2148.487452,1263.205858 2144.344899,1260.136815"/>
    <poly id="1016958416" type="landuse.residential" color="235,235,227" fill="1" layer="-3.00" shape="2194.811181,1326.473323 2115.291183,1272.753114 2112.372245,1272.914205 2095.944031,1298.754730 2175.285940,1350.707826 2177.665890,1350.127536 2194.811181,1326.473323"/>
    <poly id="1016958417" type="natural.tree_row" color="140,196,107" fill="0" layer="-4.00" shape="2146.101754,1300.235398 2149.223505,1295.700468 2152.886785,1298.304000"/>
    <poly id="1017377994" type="building.yes" color="255,230,230" fill="1" layer="-1.00" shape="3547.447715,3232.438613 3582.482326,3202.025945 3588.629721,3209.085093 3553.583740,3239.486880 3547.447715,3232.438613"/>
    <poly id="1017377995" type="building.yes" color="255,230,230" fill="1" layer="-1.00" shape="3497.915419,3280.018147 3514.944054,3265.098250 3512.996950,3262.890946 3530.334311,3247.706162 3536.789344,3255.057440 3519.873784,3269.862623 3521.265672,3271.450384 3503.814631,3286.727556 3497.915419,3280.018147"/>
    <poly id="1017377996" type="building.yes" color="255,230,230" fill="1" layer="-1.00" shape="3475.843094,3301.498282 3477.205342,3289.804425 3464.751070,3288.360560 3463.388861,3300.054422 3475.843094,3301.498282"/>
    <poly id="1017377997" type="building.yes" color="255,230,230" fill="1" layer="-1.00" shape="3470.462294,3269.056338 3391.213248,3260.443171 3392.272481,3250.796967 3471.516504,3259.421448 3470.462294,3269.056338"/>
    <poly id="1017529748" type="amenity.bicycle_parking" color="237,199,199" fill="1" layer="-1.00" shape="3229.478575,2308.114532 3229.938199,2305.728127 3232.391071,2291.808289 3237.561642,2292.464931 3233.967950,2308.411497 3229.478575,2308.114532"/>
    <poly id="1017529749" type="amenity.bicycle_parking" color="237,199,199" fill="1" layer="-1.00" shape="3226.412094,2317.182172 3220.969574,2343.287536 3225.947383,2343.994162 3230.038569,2325.827257 3231.793622,2318.044579 3226.412094,2317.182172"/>
    <poly id="101835838" type="building.apartments" color="255,230,230" fill="1" layer="-1.00" shape="4193.763599,2208.358149 4195.423030,2220.524438 4196.538981,2228.716743 4206.019634,2227.427042 4206.772837,2232.955179 4222.015879,2230.880732 4245.731355,2227.556019 4267.460615,2224.598850 4265.899500,2213.165225 4205.197965,2221.432814 4203.233222,2207.068751 4193.763599,2208.358149"/>
    <poly id="101835840" type="building.apartments" color="255,230,230" fill="1" layer="-1.00" shape="4185.630176,2157.372451 4187.555796,2172.517600 4190.075618,2172.190991 4190.785762,2177.764900 4188.370612,2178.066301 4188.861427,2181.941469 4190.392406,2181.753886 4195.923997,2181.042374 4199.411105,2180.599636 4199.781292,2183.531026 4207.224987,2182.576746 4207.508785,2184.797403 4228.127265,2182.171860 4260.135619,2178.103343 4259.410772,2172.396121 4257.487576,2172.639185 4256.338002,2163.634375 4211.447769,2169.343753 4211.916654,2173.030106 4201.958348,2174.299686 4199.990528,2158.832565 4192.966706,2159.730570 4192.554563,2156.488350 4185.630176,2157.372451"/>
    <poly id="101840662" type="amenity.parking" color="184,184,179" fill="1" layer="-1.00" shape="4034.158290,2080.939492 4031.116452,2095.331990 4035.622418,2096.019482 4034.906241,2099.961798 4036.763767,2100.344456 4036.627701,2101.429120 4031.228689,2103.117738 4040.352393,2129.527694 4055.058106,2129.049873 4061.200546,2111.294748 4063.114102,2111.698138 4068.530861,2112.828223 4069.831112,2106.763589 4042.196747,2101.061762 4043.061564,2096.881293 4037.266130,2095.895543 4040.156112,2082.220440 4034.158290,2080.939492"/>
    <poly id="101840672" type="natural.coastline" color="140,196,107" fill="1" layer="-4.00" shape="4268.206656,1605.892606 4271.388331,1604.422186 4276.339080,1606.122738 4277.769440,1610.673721 4276.455485,1613.083781 4272.183628,1611.063445 4270.033103,1608.137114 4268.206656,1605.892606"/>
    <poly id="102400753" type="building.apartments" color="255,230,230" fill="1" layer="-1.00" shape="2706.834994,2214.520417 2702.124883,2211.723156 2699.573337,2216.018618 2697.238148,2214.636144 2699.784151,2210.340836 2695.564974,2207.841688 2702.028580,2196.961341 2713.298305,2203.628955 2712.176134,2205.521615 2706.834994,2214.520417"/>
    <poly id="102400754" type="building.apartments" color="255,230,230" fill="1" layer="-1.00" shape="2737.722742,2233.012632 2741.091540,2235.056744 2738.823452,2238.787003 2739.884166,2239.425563 2740.911315,2240.053930 2743.179405,2236.323673 2750.537266,2240.773220 2748.269172,2244.503473 2749.544557,2245.280819 2750.548907,2245.887548 2752.816687,2242.146162 2761.094489,2247.160276 2758.826389,2250.890523 2760.045094,2251.624905 2761.083319,2252.252964 2763.351420,2248.522719 2767.933352,2251.301396 2773.438934,2242.231175 2774.620505,2240.281139 2744.410158,2222.003453 2743.180614,2224.021716 2737.722742,2233.012632"/>
    <poly id="1026099034" type="building.construction" color="255,230,230" fill="1" layer="-1.00" shape="3776.448095,2307.544440 3776.292197,2309.699394 3768.154706,2309.236569 3768.141625,2307.186636 3759.106732,2306.760123 3758.597611,2314.318157 3758.340976,2315.450786 3756.294459,2324.745635 3781.567064,2330.511438 3783.534486,2321.954255 3785.757425,2322.515973 3788.891328,2308.087214 3778.807870,2307.645460 3776.448095,2307.544440"/>
    <poly id="1026101324" type="building.construction" color="255,230,230" fill="1" layer="-1.00" shape="3690.934272,2312.549138 3692.151841,2289.125961 3657.766149,2292.619904 3659.494945,2310.556116 3690.934272,2312.549138"/>
    <poly id="1026119556" type="building.residential" color="255,230,230" fill="1" layer="-1.00" shape="2169.803790,3738.510683 2164.373535,3744.248031 2157.401025,3737.682709 2162.825741,3731.945509 2169.803790,3738.510683"/>
    <poly id="1026119557" type="building.yes" color="255,230,230" fill="1" layer="-1.00" shape="2169.826082,3758.177689 2174.078262,3760.519241 2175.575629,3757.813394 2171.323130,3755.460706 2169.826082,3758.177689"/>
    <poly id="1026119558" type="building.yes" color="255,230,230" fill="1" layer="-1.00" shape="2156.734905,3747.385069 2159.200851,3744.818777 2155.570881,3741.356351 2153.110476,3743.922487 2156.734905,3747.385069"/>
    <poly id="1026119559" type="building.detached" color="255,230,230" fill="1" layer="-1.00" shape="2165.771103,3775.609601 2169.079534,3767.782048 2159.883132,3763.909833 2156.574716,3771.737394 2165.771103,3775.609601"/>
    <poly id="1026119560" type="building.detached" color="255,230,230" fill="1" layer="-1.00" shape="2152.719585,3768.738253 2158.404271,3762.982496 2151.114907,3755.802195 2145.424364,3761.546986 2152.719585,3768.738253"/>
    <poly id="1026119564" type="building.detached" color="255,230,230" fill="1" layer="-1.00" shape="2152.990081,3704.657487 2144.733589,3694.473803 2138.317114,3699.648691 2146.568391,3709.843652 2152.990081,3704.657487"/>
    <poly id="1026189235" type="building.detached" color="255,230,230" fill="1" layer="-1.00" shape="1843.656530,3524.157855 1863.382155,3513.275916 1859.278409,3505.860326 1853.651019,3508.962836 1848.787030,3500.164930 1840.490521,3504.736590 1846.710946,3515.991814 1840.903320,3519.188638 1843.656530,3524.157855"/>
    <poly id="1026189236" type="building.yes" color="255,230,230" fill="1" layer="-1.00" shape="1880.370767,3540.704446 1876.356805,3533.130271 1870.124862,3536.417167 1874.138834,3543.991335 1880.370767,3540.704446"/>
    <poly id="1026192751" type="building.detached" color="255,230,230" fill="1" layer="-1.00" shape="1779.873560,3561.471255 1790.547557,3555.516610 1785.973042,3547.345672 1775.299028,3553.300330 1779.873560,3561.471255"/>
    <poly id="1026192752" type="building.residential" color="255,230,230" fill="1" layer="-1.00" shape="1749.598104,3531.046607 1754.460776,3539.209265 1743.421427,3545.765050 1738.558737,3537.602406 1749.598104,3531.046607"/>
    <poly id="1026192753" type="building.detached" color="255,230,230" fill="1" layer="-1.00" shape="1917.657487,3587.031877 1929.735023,3579.744975 1924.591828,3571.255812 1912.514273,3578.542730 1917.657487,3587.031877"/>
    <poly id="1026192754" type="building.detached" color="255,230,230" fill="1" layer="-1.00" shape="1947.844414,3610.729903 1942.659942,3601.762738 1931.849773,3607.999401 1937.039804,3616.966392 1947.844414,3610.729903"/>
    <poly id="1026192756" type="building.detached" color="255,230,230" fill="1" layer="-1.00" shape="1993.877526,3586.684594 2004.290498,3579.345133 1999.270267,3572.245259 1988.857600,3579.595868 1993.877526,3586.684594"/>
    <poly id="1026192757" type="building.detached" color="255,230,230" fill="1" layer="-1.00" shape="1975.140539,3535.826816 1958.405191,3548.728884 1965.312802,3557.658054 1984.826260,3542.637574 1981.216709,3537.960121 1978.439212,3540.100835 1975.140539,3535.826816"/>
    <poly id="1026198488" type="building.yes" color="255,230,230" fill="1" layer="-1.00" shape="2084.882540,4070.845170 2087.489147,4063.304963 2073.347794,4058.426185 2070.735990,4065.977694 2084.882540,4070.845170"/>
    <poly id="1026198489" type="building.yes" color="255,230,230" fill="1" layer="-1.00" shape="2075.153321,4052.925715 2080.351855,4038.302576 2073.111158,4035.734321 2067.907110,4050.357628 2075.153321,4052.925715"/>
    <poly id="1026198490" type="building.yes" color="255,230,230" fill="1" layer="-1.00" shape="2055.766664,4061.222875 2057.785845,4056.217746 2054.640182,4054.959107 2052.626544,4059.964080 2055.766664,4061.222875"/>
    <poly id="1026198491" type="building.yes" color="255,230,230" fill="1" layer="-1.00" shape="2062.943596,4041.138873 2066.298638,4032.630146 2063.120044,4031.383580 2059.765008,4039.892311 2062.943596,4041.138873"/>
    <poly id="1026198492" type="building.yes" color="255,230,230" fill="1" layer="-1.00" shape="2046.633732,4061.694988 2060.309834,4029.836794 2050.747256,4025.741305 2037.065680,4057.599693 2046.633732,4061.694988"/>
    <poly id="1026198496" type="building.yes" color="255,230,230" fill="1" layer="-1.00" shape="2007.288332,4053.947087 2015.721262,4049.338441 2014.540186,4047.188067 2012.231575,4048.457374 2009.356478,4046.968193 2009.338365,4044.584072 2007.195273,4044.076898 2007.288332,4053.947087"/>
    <poly id="1026482236" type="building.detached" color="255,230,230" fill="1" layer="-1.00" shape="1764.925007,4391.887908 1774.627330,4384.411995 1768.180920,4376.071761 1758.478586,4383.547691 1764.925007,4391.887908"/>
    <poly id="1026482238" type="building.yes" color="255,230,230" fill="1" layer="-1.00" shape="1769.804124,4397.754585 1777.383950,4391.843697 1774.473035,4388.127091 1766.898744,4394.037826 1769.804124,4397.754585"/>
    <poly id="1026482239" type="building.carport" color="255,230,230" fill="1" layer="-1.00" shape="1741.171324,4474.737147 1714.970733,4441.399529 1710.596014,4444.834213 1736.801843,4478.160507 1741.171324,4474.737147"/>
    <poly id="1026485014" type="building.detached" color="255,230,230" fill="1" layer="-1.00" shape="1373.509347,4419.169275 1377.552779,4414.629361 1380.180785,4416.972024 1387.279954,4409.012597 1380.187152,4402.708490 1376.906168,4406.390776 1374.187624,4403.983854 1366.336766,4412.789482 1373.509347,4419.169275"/>
    <poly id="1026487523" type="building.yes" color="255,230,230" fill="1" layer="-1.00" shape="1276.005024,4506.925189 1277.076637,4499.851865 1271.476188,4498.998722 1270.399366,4506.083340 1276.005024,4506.925189"/>
    <poly id="1026487524" type="building.detached" color="255,230,230" fill="1" layer="-1.00" shape="1262.690505,4505.346501 1261.325502,4497.384861 1256.416413,4498.216795 1256.096837,4496.353910 1251.232053,4497.184577 1252.911118,4507.009258 1262.690505,4505.346501"/>
    <poly id="1026487525" type="building.yes" color="255,230,230" fill="1" layer="-1.00" shape="1235.770196,4488.391141 1235.889573,4485.601895 1232.193495,4485.440679 1232.068583,4488.230085 1235.770196,4488.391141"/>
    <poly id="1026487526" type="building.yes" color="255,230,230" fill="1" layer="-1.00" shape="1228.835739,4498.786521 1235.247202,4499.315423 1235.523221,4495.997942 1233.283999,4495.806001 1233.437071,4493.996394 1229.264502,4493.648297 1228.835739,4498.786521"/>
    <poly id="1028492772" type="building.detached" color="255,230,230" fill="1" layer="-1.00" shape="1396.721589,4379.535232 1408.023942,4383.222508 1412.987645,4368.059014 1401.685251,4364.371722 1396.721589,4379.535232"/>
    <poly id="1028492773" type="building.detached" color="255,230,230" fill="1" layer="-1.00" shape="1351.245685,4300.865325 1343.811289,4308.544714 1348.565834,4313.132961 1356.000229,4305.453582 1351.245685,4300.865325"/>
    <poly id="1028492775" type="building.yes" color="255,230,230" fill="1" layer="-1.00" shape="1250.495452,4339.027198 1256.235691,4334.126383 1252.973432,4329.584520 1247.133599,4334.298767 1250.495452,4339.027198"/>
    <poly id="1028494313" type="building.yes" color="255,230,230" fill="1" layer="-1.00" shape="1117.929396,4384.068783 1127.069241,4381.744335 1126.038832,4377.717826 1116.904516,4380.042118 1117.929396,4384.068783"/>
    <poly id="1028738953" type="building.house" color="255,230,230" fill="1" layer="-1.00" shape="2443.784105,3135.755511 2451.676795,3127.452666 2438.953064,3115.389391 2436.998883,3117.450639 2435.540125,3116.065746 2429.601615,3122.307373 2443.784105,3135.755511"/>
    <poly id="1028738954" type="building.house" color="255,230,230" fill="1" layer="-1.00" shape="2465.982794,3113.028501 2454.661023,3101.716532 2446.619164,3109.845315 2454.534986,3117.587878 2456.285437,3115.967005 2459.466320,3119.030193 2465.982794,3113.028501"/>
    <poly id="1028742828" type="building.house" color="255,230,230" fill="1" layer="-1.00" shape="1863.425225,4405.832151 1867.174009,4410.360629 1872.004079,4406.367117 1874.438163,4409.306250 1883.275914,4402.022475 1877.104132,4394.554527 1863.425225,4405.832151"/>
    <poly id="1028742829" type="building.house" color="255,230,230" fill="1" layer="-1.00" shape="1830.023532,4431.401779 1836.302838,4426.531065 1834.933202,4424.765005 1840.784232,4420.229689 1834.339944,4411.956144 1827.388191,4417.347521 1828.895841,4419.287926 1823.722783,4423.302442 1830.023532,4431.401779"/>
    <poly id="1028742830" type="building.yes" color="255,230,230" fill="1" layer="-1.00" shape="1841.765113,4404.122040 1848.676531,4403.913428 1848.431516,4395.919619 1841.520083,4396.128231 1841.765113,4404.122040"/>
    <poly id="1028742831" type="building.yes" color="255,230,230" fill="1" layer="-1.00" shape="1820.899828,4414.903147 1826.573187,4410.551177 1822.221456,4404.903364 1816.548093,4409.255340 1820.899828,4414.903147"/>
    <poly id="1028745365" type="building.house" color="255,230,230" fill="1" layer="-1.00" shape="1398.952575,3529.231465 1403.405799,3532.368695 1405.281320,3529.718528 1407.448327,3531.238711 1407.555154,3527.424665 1411.157170,3522.340333 1408.259904,3520.295075 1406.943998,3522.160306 1404.952226,3520.757673 1398.952575,3529.231465"/>
    <poly id="1028745366" type="building.house" color="255,230,230" fill="1" layer="-1.00" shape="1399.467116,3497.302513 1410.443820,3500.174637 1413.262255,3489.418596 1402.291062,3486.546305 1399.467116,3497.302513"/>
    <poly id="1028745367" type="building.house" color="255,230,230" fill="1" layer="-1.00" shape="1400.539255,3481.526385 1411.510464,3484.398672 1414.334457,3473.642473 1403.363219,3470.770178 1400.539255,3481.526385"/>
    <poly id="1028746154" type="building.house" color="255,230,230" fill="1" layer="-1.00" shape="1318.075137,3296.508096 1334.582663,3294.630254 1333.412413,3284.378641 1316.910381,3286.256328 1318.075137,3296.508096"/>
    <poly id="1028746155" type="building.house" color="255,230,230" fill="1" layer="-1.00" shape="1291.432570,3305.541220 1301.904937,3303.569074 1299.408943,3290.402572 1288.936859,3292.385859 1291.432570,3305.541220"/>
    <poly id="1028746156" type="building.yes" color="255,230,230" fill="1" layer="-1.00" shape="1306.029497,3290.223652 1313.244956,3289.715655 1312.830848,3283.788201 1305.615377,3284.296198 1306.029497,3290.223652"/>
    <poly id="1028747136" type="building.house" color="255,230,230" fill="1" layer="-1.00" shape="1535.313408,3260.493157 1537.982230,3251.268142 1522.697119,3246.858698 1519.983256,3256.252164 1526.747887,3258.197870 1526.439930,3259.254153 1531.773558,3260.795133 1532.126912,3259.581545 1535.313408,3260.493157"/>
    <poly id="1028747137" type="building.yes" color="255,230,230" fill="1" layer="-1.00" shape="1581.522627,3269.633284 1585.271624,3264.823516 1579.946849,3260.685841 1576.132090,3265.909795 1581.522627,3269.633284"/>
    <poly id="1028747138" type="building.house" color="255,230,230" fill="1" layer="-1.00" shape="1588.637995,3284.606601 1598.132163,3275.186232 1590.551003,3267.569599 1581.062373,3276.989830 1588.637995,3284.606601"/>
    <poly id="1028747139" type="building.house" color="255,230,230" fill="1" layer="-1.00" shape="1558.323235,3067.067930 1567.980495,3067.972577 1568.883096,3058.441586 1564.590687,3058.029620 1564.377754,3060.275499 1559.012563,3059.771683 1558.323235,3067.067930"/>
    <poly id="1028749541" type="building.yes" color="255,230,230" fill="1" layer="-1.00" shape="1544.779140,3261.503499 1549.781162,3265.405219 1548.668388,3266.818846 1552.201745,3269.581453 1545.483032,3278.142426 1539.147876,3273.186864 1540.939983,3270.906892 1538.744987,3269.186851 1544.779140,3261.503499"/>
    <poly id="1030722336" type="amenity.parking" color="184,184,179" fill="1" layer="-1.00" shape="1828.829569,3884.249736 1835.608933,3874.339199 1831.659756,3866.696370 1808.302042,3879.409544 1814.312706,3884.697948 1819.908188,3889.619355 1828.829569,3884.249736"/>
    <poly id="103350334" type="natural.scrub" color="140,196,107" fill="1" layer="-4.00" shape="3941.134374,3017.428400 3958.610842,2899.303558 3959.422583,2894.823679 3925.114228,2890.379392 3895.965878,2870.012580 3896.721546,2880.566063 3894.536869,2920.574619 3880.355459,2961.843933 3876.428786,3000.619853 3941.134374,3017.428400"/>