<?xml version="1.0" encoding="UTF-8"?>
<!-- generated on 2022-02-16 12:58:54.100647 by $Id: ptlines2flows.py v1_3_1+0313-ccb31df3eb jakob.erdmann@dlr.de 2019-09-02 13:26:32 +0200 $ v1_11_0+0000-d32ff7d52a3
  options: 
-->
<routes xmlns:xsi="http://www.w3.org/2001/XMLSchema-instance" xsi:noNamespaceSchemaLocation="http://sumo.dlr.de/xsd/routes_file.xsd">
    <vType id="pt_bus" vClass="bus"/>
    <vType id="pt_tram" vClass="tram"/>
    <vType id="pt_train" vClass="rail"/>
    <vType id="pt_subway" vClass="rail_urban"/>
    <vType id="pt_light_rail" vClass="rail_urban"/>
    <vType id="pt_monorail" vClass="rail"/>
    <vType id="pt_trolleybus" vClass="bus"/>
    <vType id="pt_aerialway" vClass="bus"/>
    <vType id="pt_ferry" vClass="ship"/>
	<vType id="pt_delivery" vClass="delivery"/>
	<vType id="pt_veh" vClass="passenger"/>
    
	<route id="pt_bus_818:0" edges="23278364#1 45961435 986676789 195005703 511790420#2 986676785 37253297 45961433 107612264#1 130206504 53801891 37253298 43872941 43872938#0 43872942 96614982#1 37062084 37062083#0 37062083#1 39449178 22962059 44508915 49184939#0 49184937#1 44508919 54905484#0 54905484#1 299346549#0 54905485#0 54905485#1 54905486 54905482 379340215#0 379340215#1 37253301#4 379340214#0 379340214#1 108037100 108037096#1 37174363#0 37174363#1 108037095#0 108037095#1 23251919#1 108202487#1 108202487#2 23251925 111751764 111751762 23251924#3 23251924#4 23251924#5 23251924#6 23251924#7 108037101#1 108037098#1 -108037102 -108037096#0 37253299#0 37253299#1 37253301#6 163695147#0 163695147#1 37845491#0 37845490#0 37845490#1 37253312 112897646#1 112897646#2 112897646#3 112897646#4 112897646#5 112897646#6 -112897646#6 -112897646#5 -112897646#4 -112897646#3 -112897646#2 -112897646#1 -112897646#0 37771305 -37845491#0 23251950#0 23251950#1 37253301#1 37253301#2 37253300#0 37253300#1 -368499153 23251952 38078878#0 38078878#1 299346549#2 54905487#0 54905488#1 50280002 54895330#0 50280004#1 50280004#2 50280004#3 37253305#0 37253305#1 54895344#0 54895344#1 54115575#0 54115575#1 54115575#2 54115575#3 54115575#4 54115581 37055573#0 37055573#1 50129635#0 50129635#1 37253308#0 37253308#1 38549138#0 54897124 47015513#0 47015513#1 37055576#0 37055576#1 37055576#2 45083849 54897119#0 54897119#1 54897119#2 54897119#3 43523894#0 54897122 38549139#0 38549139#1 43142148 43142147 23251955#1 23251955#2 23251955#3 54901669 54901688#0 54901688#1 80181854#0 80181854#1 -284131378#2 -284131378#1 -284131378#0 -48773796#1 -48773796#0 48773798 80181851 48773801#0 48773801#1 -284131377 -48922631#2 -48922631#1 -48922631#0 48922633#0 48922633#1 80181847 48922634 -285626282 285626282 48922632 4264945 44508334 34100336 4680422#0 4680422#1 48922631#0 48922631#1 48922631#2 284131377 48773802#0 48773802#1 80181849 175803721 4680423 48773796#0 48773796#1 284131378#0 284131378#1 284131378#2 54901679#0 54901679#1 54901679#2 54901673#0 54901673#1 -54901669 -23251955#3 -23251955#2 -23251955#1 23251953 43142149#0 43142149#1 80181857#1 54897123 -43523894#0 -54897119#3 -54897119#2 -54897119#1 -54897119#0 -45083849 45083848#0 45083848#1 80181861#0 80181861#1 -54897124 -38549138#0 -37253308#1 -37253308#0 -50129635#1 -50129635#0 -37055573#1 -37055573#0 -54115581 -54115575#4 -54115575#3 -54115575#2 -54115575#1 -54115575#0 -54895344#1 -54895344#0 54895338#0 54895338#1 54895339 54895341#0 54895341#1 54895334#0 54895334#1 54895332#1 -50280002 -368499152 37253303#1 299346551 299346548 299346549#0 54905485#0 54905485#1 54905486 54905482 379340215#0 379340215#1 37253301#4 379340214#0 379340214#1 108037100 108037096#1 37174363#0 37174363#1 108037095#0 108037095#1 23251919#1 108202487#1 108202487#2 41406359#0 41406359#1 41406359#2 37248851#1 37248851#2 37248851#3 23251924#0 23251924#1 23251924#3 23251924#4 23251924#5 23251924#6 23251924#7 108037101#1 108037098#1 -108037102 -108037096#0 37253299#0 37253299#1 37253301#6 163695147#0 163695147#1 37845491#0 37845490#0 37845490#1 37253312 112897646#1 112897646#2 112897646#3 112897646#4 112897646#5 112897646#6 -112897646#6 -112897646#5 -112897646#4 -112897646#3 -112897646#2 -112897646#1 -112897646#0 37771305 -37845491#0 23251950#0 23251950#1 37253301#1 37253301#2 37253300#0 37253300#1 -368499153 23251952 38078878#0 38078878#1 299346549#2 299346547 299346551 54905483 284131423 -42701808 42701807 44508917#0 49184938#1 -22962059 4775834 49184936 39449175#0 39449175#1 -37062084 37062085 107913512 96691591#0 23262721 43872939 304964296 43872940 50165768 -53801891 -130206504 -107612264#1 -130206509#0 45961432 986676788 511790420#4 511790420#5 511790420#0 23278363 986676791 195005702 45961436" >
        <stop busStop="446025783" duration="10" until="10.0"/> <!-- Vuosaari (M), laituri 16 -->
		<stop busStop="445835212" duration="10" until="60.0"/> <!-- Mustankivenkatu -->
		<stop busStop="445104198" duration="10" until="120.0"/> <!-- Vuotie -->
		<stop busStop="445085494" duration="10" until="180.0"/> <!-- Aurinkolahti -->
		<stop busStop="431515128" duration="10" until="240.0"/> <!-- Itäreimarintie -->
		<stop busStop="54905482" duration="10" until="300.0"/> <!-- Majakanvartijankatu -->
		<stop busStop="444677152" duration="10" until="360.0"/> <!-- Eteläreimarintie -->
		<stop busStop="444677151" duration="10" until="420.0"/> <!-- Eteläloisto -->
		<stop busStop="444677142" duration="10" until="480.0"/> <!-- Pohjoisloisto -->
		<stop busStop="444677141" duration="10" until="540.0"/> <!-- Konttialue -->
		<stop busStop="496384598" duration="10" until="600.0"/> <!-- Telakan portti -->
		<stop busStop="-368499153" duration="10" until="660.0"/> <!-- Majakanvartijankatu -->
		<stop busStop="444677135" duration="10" until="720.0"/> <!-- Satamakaari -->
		<stop busStop="444677136" duration="10" until="780.0"/> <!-- Käärmeniementie -->
		<stop busStop="444677138" duration="10" until="840.0"/> <!-- Voimalaitokset -->
		<stop busStop="5707231929" duration="10" until="900.0"/> <!-- Hansaterminaali -->
		<stop busStop="447911554" duration="10" until="960.0"/> <!-- Rahtarinaukio -->
		<stop busStop="-284131378#2" duration="10" until="1020.0"/> <!-- Niinilahti -->
		<stop busStop="-48773796#0" duration="10" until="1080.0"/> <!-- Niinisaarentie -->
		<stop busStop="-284131377" duration="10" until="1140.0"/> <!-- Porslahdentie -->
		<stop busStop="-48922631#0" duration="10" until="1200.0"/> <!-- Neitsytsaarentie -->
		<stop busStop="48922631#0" duration="10" until="1260.0"/> <!-- Neitsytsaarentie -->
		<stop busStop="284131377" duration="10" until="1320.0"/> <!-- Porslahdentie -->
		<stop busStop="48773796#0" duration="10" until="1380.0"/> <!-- Niinisaarentie -->
		<stop busStop="-54901669" duration="10" until="1440.0"/> <!-- Niinilahti -->
		<stop busStop="923111698" duration="10" until="1500.0"/> <!-- Rahtarinaukio -->
		<stop busStop="444677140" duration="10" until="1560.0"/> <!-- Hansaterminaali -->
		<stop busStop="638632718" duration="10" until="1620.0"/> <!-- Voimalaitokset -->
		<stop busStop="444677137" duration="10" until="1680.0"/> <!-- Käärmeniementie -->
		<stop busStop="54905482" duration="10" until="1740.0"/> <!-- Majakanvartijankatu -->
		<stop busStop="444677152" duration="10" until="1800.0"/> <!-- Eteläreimarintie -->
		<stop busStop="444677151" duration="10" until="1860.0"/> <!-- Eteläloisto -->
		<stop busStop="444677142" duration="10" until="1920.0"/> <!-- Pohjoisloisto -->
		<stop busStop="444677141" duration="10" until="1980.0"/> <!-- Konttialue -->
		<stop busStop="496384598" duration="10" until="2040.0"/> <!-- Telakan portti -->
		<stop busStop="-368499153" duration="10" until="2100.0"/> <!-- Majakanvartijankatu -->
		<stop busStop="-432653756" duration="10" until="2160.0"/> <!-- Satamakaari -->
		<stop busStop="431515189" duration="10" until="2220.0"/> <!-- Itäreimarintie -->
		<stop busStop="445085492" duration="10" until="2280.0"/> <!-- Aurinkolahti --> 
		<stop busStop="366851558" duration="10" until="2340.0"/> <!-- Vuotie -->
		<stop busStop="445839083" duration="10" until="2400.0"/> <!-- Vuosaari(M), laituri 11 -->
    </route>
    <route id="pt_bus_90N:0" edges="4775946 17419593 160075313 435093361 50165759 37995792#0 6175908#3 6175908#4 38045380 34825493 94939084 94939068 17422994 94914480 31954279 231823051#0 38045368 54906113 53179479 -108031332 -108031333#0 -130193136#2 -130193136#1 -130193136#0 35360594 284131372#0 284131372#1 65075527#0 65075527#1 65075525#0 65075525#1 65075525#2 42525027#0 42525027#1 63588540 107756084 63588543 53179702 107756078#0 107756078#1 130178876 130178877#0 130178877#1 -107756082 -175155171 -107612263#4 -107612263#3 -107612263#2 -107612263#1 -107612263#0 -45961438#0 986676796 45961437 511790420#0 23278363 986676791 195005702 45961436 -23278364#0 -42700982#3 -42700982#1 -42700982#0 38045366 304396594#1 304396594#2 196207114#0 196207114#1 637441273 553546863 637441268#0 637441268#1 40163332 284131420 313666957 40164324#1 40164323 123749553#0 123749553#1 123749551 40329943#0 40329943#2 110778862 276197907 48980169#0 48980169#1 241899217 241899214 48980173#0 48980173#1 -38360085#3 -38360085#2 -38360085#1 -40166558#0 -284131368 -346556845#1 -346556845#0 196295110#0 196295110#1 196295111#0 196295111#1 -95889679 95889674 95891689#0 95891689#2 95891682 -34844201#1 -34844201#0 892377261 34824701#1 -34824701#1 -34824701#0 34844201#0 34844201#1 95889676#0 95889676#2 95889679 196295109#0 196295109#1 40326558#0 40326558#1 196295108 346556845#1 284131368 40166558#0 40166558#1 38360085#2 38360085#3 48980178#0 48980178#1 241899212 241899218 241899213 48980170#0 48980170#1 -276197907 -110778862 110778854#0 110778854#2 -276138730 123749557#0 123749557#1 -40164323 4864798#0 122743351#1 -284131420 -40163332 466143872#0 466143872#1 637441281 -637441273 -196207114#1 -196207114#0 -304396594#2 -304396594#1 -304396594#0 42700982#0 42700982#1 42700982#3 23278350 23278364#1 45961435 986676789 195005703 511790420#2 511790420#3 511790420#4 4323896 986676793 45961438#0 107612263#0 107612263#1 107612263#2 107612263#3 107612263#4 107612263#6 53179703 130178871#0 130178871#1 130178875#0 130178875#1 -53179702 -63588543 63588500 107756079 -465653482 -42525027#0 -65075525#2 -65075525#1 -65075525#0 65075526#0 65075526#1 -284131372#1 -284131372#0 -35360594 130193136#0 130193136#1 130193136#2 130193136#3 108031333#1 17422993#1 17422993#3 53179480#0 4864832 17422982#1 34825498 65069441 34825495 94939080 94939074 4863779 54442851 50165766 6175910#0 -34843857#2 34823845 200669298 435093360 34825500 160075308 6932479" >
        <stop busStop="454182026" duration="10" until="11.0"/> <!-- Rastila (M) -->
		<stop busStop="434677214" duration="10" until="60.0"/> <!-- Venemestarintie -->
		<stop busStop="-454172818" duration="10" until="120.0"/> <!-- Kaivonkatsojanpuisto -->
		<stop busStop="445090546" duration="10" until="180.0"/> <!-- Vedenottamontie -->
		<stop busStop="6329149204" duration="10" until="240.0"/> <!-- Iiluodontie -->
		<stop busStop="-251919863" duration="10" until="300.0"/> <!-- Vuosaari (M), laituri 12 -->
		<stop busStop="411314561" duration="10" until="360.0"/> <!-- Mosaiikkitori -->
		<stop busStop="1370762514" duration="10" until="420.0"/> <!-- Lokitie -->
		<stop busStop="-6329149202" duration="10" until="480.0"/> <!-- Koukkusaarentie -->
		<stop busStop="-471185941" duration="10" until="540.0"/> <!-- Merikorttitie -->
		<stop busStop="6329149201" duration="10" until="600.0"/> <!-- Mustalahdentie -->
		<stop busStop="6329147761" duration="10" until="660.0"/> <!-- Mustalahdentie -->
		<stop busStop="433710036" duration="10" until="720.0"/> <!-- Merikorttitie -->
		<stop busStop="3691097233" duration="10" until="780.0"/> <!-- Koukkusaarentie -->
		<stop busStop="-355680647" duration="10" until="840.0"/> <!-- Lokitie -->
		<stop busStop="411314560" duration="10" until="900.0"/> <!-- Mosaiikkitori -->
		<stop busStop="6329147757" duration="10" until="960.0"/> <!-- Vuosaari (M), laituri 14 -->
		<stop busStop="6329147756" duration="10" until="1020.0"/> <!-- Iiluodontie -->
		<stop busStop="-6329147755" duration="10" until="1080.0"/> <!-- Vedenottamontie -->
		<stop busStop="454172819" duration="10" until="1140.0"/> <!-- Kaivonkatsojanpuisto -->
		<stop busStop="434565196" duration="10" until="1200.0"/> <!-- Venemestarintie -->
		<stop busStop="408353537" duration="10" until="1260.0"/> <!-- Rastila (M) -->
    </route>
    <route id="pt_bus_90A:0" edges="4775946 17419593 160075313 435093361 50165759 37995792#0 6175908#3 6175908#4 38045380 34825493 94939084 94939068 34825497 109255873 37253298 43872941 43872938#0 43872942 96614982#1 37062084 37062083#0 37062083#1 39449178 22962059 44508915 49184939#0 49184937#1 44508919 54905484#0 54905484#1 299346549#0 299346549#1 299346549#2 54905487#0 54905488#1 50280002 54895330#0 50280004#1 50280004#2 50280004#3 37253305#0 37253305#1 54895344#0 54895344#1 54115575#0 54115575#1 54115575#2 54115575#3 54115575#4 54115581 37055573#0 37055573#1 50129635#0 50129635#1 37253308#0 37253308#1 -37253308#1 -37253308#0 -50129635#1 -50129635#0 -37055573#1 -37055573#0 -54115581 -54115575#4 -54115575#3 -54115575#2 -54115575#1 -54115575#0 -54895344#1 -54895344#0 54895338#0 54895338#1 54895339 54895341#0 54895341#1 54895334#0 54895334#1 54895332#1 -50280002 -368499152 37253303#1 299346551 54905483 284131423 -42701808 42701807 44508917#0 49184938#1 -22962059 4775834 49184936 39449175#0 39449175#1 -37062084 37062085 107913512 96691591#0 23262721 43872939 304964296 43872940 50165768 37253309 48953318 48953317 34825495 94939080 94939074 4863779 54442851 50165766 6175910#0 6175910#1 34823845 200669298 435093360 34825500 160075308 6932479" >
        <stop busStop="454182026" duration="10" until="10.0"/> <!-- Rastila (m) -->
		<stop busStop="434677214" duration="10" until="60.0"/> <!-- Venemestarintie -->
		<stop busStop="445835212" duration="10" until="90.0"/> <!-- Mustankivenkatu -->
		<stop busStop="445104198" duration="10" until="120.0"/> <!-- Vuotie -->
		<stop busStop="445085494" duration="10" until="150.0"/> <!-- Aurinkolahti -->
		<stop busStop="431515128" duration="10" until="180.0"/> <!-- Itäreimarintie -->
		<stop busStop="444677135" duration="10" until="210.0"/> <!-- Satamakaari -->
		<stop busStop="444677136" duration="10" until="240.0"/> <!-- Käärmeniementie -->
		<stop busStop="444677138" duration="10" until="270.0"/> <!-- Voimalaitokset -->
		<stop busStop="5707231929" duration="10" until="300.0"/> <!-- Hansaterminaali -->
		<stop busStop="444677140" duration="10" until="330.0"/> <!-- Hansaterminaali -->
		<stop busStop="638632718" duration="10" until="360.0"/> <!-- Voimalaitokset -->
		<stop busStop="444677137" duration="10" until="390.0"/> <!-- Käärmeniementie -->
		<stop busStop="-432653756" duration="10" until="420.0"/> <!-- Satamakaari -->
		<stop busStop="431515189" duration="10" until="450.0"/> <!-- Itäreimarintie -->
		<stop busStop="445085492" duration="10" until="480.0"/> <!-- Aurinkolahti -->
		<stop busStop="366851558" duration="10" until="510.0"/> <!-- Vuotie -->
		<stop busStop="434565196" duration="10" until="540.0"/> <!-- Venemestarintie -->
		<stop busStop="408353537" duration="10" until="570.0"/> <!-- Rastila (M) -->
    </route>
    <route id="pt_bus_96N:0" edges="4775946 17419593 160075313 435093361 50165759 37995792#0 35360597#1 6179673 65069391#0 65069391#1 128139009 128139030#0 128139030#1 128139023#0 128139023#1 128139011#0 128139011#1 128139012#0 128139012#1 128139012#2 419276338#0 419276342 42524428#1 42524428#2 128672146#0 128672146#1 128672146#2 128672146#3 128672146#4 128672146#5 128672146#6 128672146#8 201252986 182886295#1 129463692#0 129463692#1 182886418#1 182886420 4323863 201252985 284131374#0 284131374#1 284131373#2 35360594 284131372#0 284131372#1 65075527#0 65075527#1 65075525#0 65075525#1 65075525#2 42525027#0 42525027#1 63588540 107756084 63588543 53179702 107756078#0 107756078#1 34822265#0 34822265#1 107756096#0 107756096#1 107756096#2 464123732 -108958680#1 -108958680#0 -108958681 -108958676#2 -108958676#0 -108958677#0 -108958678#0 -55896960 -231840616#0 4323911 231840618#1 108255609#1 108255609#2 108255618#1 108255593#1 108255614#1 54516960#0 54516960#1 54516960#2 129805857#1 107899566#1 107899567#1 54233568 54233566 107899610 40166059#0 40166059#1 40166060#0 40166060#1 54040588 35066859#0 35066859#1 34824514 54040587 107899576#1 284131342#3 107899636#1 38827808 284131341 53198549#0 53198549#1 195008346 39449175#0 39449175#1 -37062084 37062085 107913512 96691591#0 39449177 8106489 131338199#0 131338199#1 131338199#4 43872698#1 -284131383#5 -284131383#4 -284131383#3 -284131383#2 -284131383#1 -284131383#0 -108961948#2 -108961948#1 -108961948#0 -108961950 -108961951 -38045373 -285149925#0 -4291186 -108965747 -108965746#0 -108965742 -108961946#0 -38045378#1 -38045378#0 -40322702 -128747716 -38083953 -110586582 -110586591 -196305856#0 -284131389 -48773797#2 -48773797#1 -48773797#0 48773799 48773800 284131387 4264958 80181851 80181852 80181849 38360086 38083952 48773797#0 48773797#1 48773797#2 284131389 196305856#0 196305856#1 110586582 38083953 128747716 40322702 38045378#0 38045378#1 108961946#0 108961946#1 108965746#0 108965746#1 4291186 285149925#0 5012880#1 108961951 108961950 108961948#0 108961948#1 108961948#2 284131383#0 284131383#1 284131383#2 284131383#3 284131383#4 284131383#5 108389457 43872700#1 43872937#0 43872937#2 43872937#3 284131385 131338198#0 131338198#1 8106461#0 8106461#1 50411272#0 43872942 96614982#1 37062084 37062083#0 37062083#1 -195008346 -53198549#1 -53198549#0 -284131341 -38827808 -107899636#1 -107899636#0 -350674553 -107899576#0 -34824514 6450323#0 6450323#1 40329946 -54040588 -107899627 -40166060#0 40166061 107899583#1 -107899610 -107899626 -54233568 -95946771#0 -107899567#0 -107899566#0 -129805857#0 -54516960#1 -54516960#0 -129635792 -108255614#0 -108255593#0 -108255618#0 -108255609#1 -108255609#0 -231840618#0 4323871 284131340 55896959#1 108958678#2 108958677#1 108958676#2 108958676#3 108958680#0 108958680#1 892370930 617016922#0 617016922#1 -107756096#2 -107756096#1 -107756096#0 130178879#0 130178879#1 130178881 130178875#0 130178875#1 -53179702 -63588543 63588500 107756079 -465653482 -42525027#0 -65075525#2 -65075525#1 -65075525#0 65075526#0 65075526#1 -284131372#1 -284131372#0 -35360594 -284131373#2 -284131374#1 -284131374#0 -201252985 -4323863 -182886420 -182886418#1 -182886418#0 -129463692#0 -182886295#1 -182886295#0 -128672146#8 -128672146#6 -128672146#5 -128672146#4 -128672146#3 -128672146#2 -128672146#1 -128672146#0 -42524428#2 -42524428#1 -42524428#0 -419276338#0 -128139012#2 -128139012#1 -128139012#0 -128139013 -128139011#0 128139020 128139004 -128139030#1 -128139030#0 -128139009 -65069391#1 -65069391#0 -6179673 17419599#0 167409834 34823845 200669298 435093360 34825500 160075308 6932479 " >
        <stop busStop="454182023" duration="10" until="60.0"/> <!-- Meri-Rastilan tori -->
		<stop busStop="454178536" duration="10" until="120.0"/> <!-- Fokkatori -->
		<stop busStop="454177606" duration="10" until="180.0"/> <!-- Ramsinniementie -->
		<stop busStop="6329149208" duration="10" until="240.0"/> <!-- Harbonkatu -->
		<stop busStop="2275921565" duration="10" until="300.0"/> <!-- Halkaisijantie -->
		<stop busStop="445090564" duration="10" until="360.0"/> <!-- Kallvikinniemi -->
		<stop busStop="445090546" duration="10" until="420.0"/> <!-- Vedenottamontie -->
		<stop busStop="6329149204" duration="10" until="480.0"/> <!-- Iiluodontie -->
		<stop busStop="445085498" duration="10" until="540.0"/> <!-- Aurinkolahden puistotie -->
		<stop busStop="-445834185" duration="10" until="600.0"/> <!-- Ivan Falinin kuja -->
		<stop busStop="445834183" duration="10" until="660.0"/> <!-- Gustav Pauligin katu -->
		<stop busStop="445834180" duration="10" until="720.0"/> <!-- Aurinkotuulenkatu -->
		<stop busStop="445085495" duration="10" until="780.0"/> <!-- Sumukuja -->
		<stop busStop="445085492" duration="10" until="840.0"/> <!-- Aurinkolahti -->
		<stop busStop="366851558" duration="10" until="900.0"/> <!-- Vuotie -->
		<stop busStop="-7395880287" duration="10" until="960.0"/> <!-- Vuosaarentie -->
		<stop busStop="433899532" duration="10" until="1020.0"/> <!-- Punakiventie -->
		<stop busStop="-7395880289" duration="10" until="1080.0"/> <!-- Lokkisaarentie -->
		<stop busStop="433899494" duration="10" until="1140.0"/> <!-- Haapasaarentie -->
		<stop busStop="-7395880291" duration="10" until="1200.0"/> <!-- Isonvillasaarentie -->
		<stop busStop="433727784" duration="10" until="1260.0"/> <!-- Porslahdentie -->
		<stop busStop="433727701" duration="10" until="1320.0"/> <!-- Porslahdentie -->
		<stop busStop="433727792" duration="10" until="1380.0"/> <!-- Isonvillasaarentie -->
		<stop busStop="433344976" duration="10" until="1440.0"/> <!-- Haapasaarentie -->
		<stop busStop="7395880288" duration="10" until="1500.0"/> <!-- Lokkisaarentie -->
		<stop busStop="462094431" duration="10" until="1560.0"/> <!-- Punakiventie -->
		<stop busStop="1109603802" duration="10" until="1620.0"/> <!-- Vuosaarentie -->
		<stop busStop="445104198" duration="10" until="1680.0"/> <!-- Vuotie -->
		<stop busStop="472359863" duration="10" until="1740.0"/> <!-- Aurinkolahti -->
		<stop busStop="445834176" duration="10" until="1800.0"/> <!-- Sumukuja -->
		<stop busStop="445834181" duration="10" until="1860.0"/> <!-- Aurinkotuulenkatu -->
		<stop busStop="-969276416" duration="10" until="1920.0"/> <!-- Gustav Pauligin katu -->
		<stop busStop="969256181" duration="10" until="1980.0"/> <!-- Ivan Falinin kuja -->
		<stop busStop="-445085507" duration="10" until="2040.0"/> <!-- Aurinkolahden puistotie -->
		<stop busStop="6329147756" duration="10" until="2100.0"/> <!-- Iiluodontie -->
		<stop busStop="-6329147755" duration="10" until="2160.0"/> <!-- Vedenottamontie -->
		<stop busStop="-445090567" duration="10" until="2220.0"/> <!-- Kallvikinniemi -->
		<stop busStop="-454176407" duration="10" until="2280.0"/> <!-- Halkaisijantie -->
		<stop busStop="-454172825" duration="10" until="2340.0"/> <!-- Harbonkatu -->
		<stop busStop="-454177607" duration="10" until="2400.0"/> <!-- Ramsinniementie -->
		<stop busStop="-454178533" duration="10" until="2460.0"/> <!-- Fokkatori -->
		<stop busStop="454182030" duration="10" until="2520.0"/> <!-- Meri-Rastilan tori -->
    </route>
    <route id="pt_bus_96:0" edges="45961436 -23278364#0 -42700982#3 -42700982#1 -42700982#0 -107911338 -196699243 -44696504#5 -44696504#4 -44696504#3 -44696504#2 -44696504#1 -44696504#0 44696503 44696692#0 43872698#1 -284131383#5 -284131383#4 -284131383#3 -284131383#2 -284131383#1 -284131383#0 -108961948#2 -108961948#1 -108961948#0 -108961950 -108961951 -38045373 -285149925#0 -4291186 -108965747 -108965746#0 -108965742 -108961946#0 -38045378#1 -38045378#0 -40322702 -128747716 -38083953 -110586582 -110586591 -196305856#0 -284131389 -48773797#2 -48773797#1 -48773797#0 48773799 48773800 284131387 4264958 80181851 80181852 80181849 38360086 38083952 48773797#0 48773797#1 48773797#2 284131389 196305856#0 196305856#1 110586582 38083953 128747716 40322702 38045378#0 38045378#1 108961946#0 108961946#1 108965746#0 108965746#1 4291186 285149925#0 5012880#1 108961951 108961950 108961948#0 108961948#1 108961948#2 284131383#0 284131383#1 284131383#2 284131383#3 284131383#4 284131383#5 108389457 43872699#1 44696504#0 44696504#1 44696504#2 44696504#3 44696504#4 44696504#5 196699243 40163330 42700982#0 42700982#1 42700982#3 23278350" >
        <stop busStop="445839083" duration="10" until="14.0"/> <!-- Vuosaari (M), laituri 11 -->
		<stop busStop="411314561" duration="10" until="60.0"/> <!-- Mosaiikkitori -->
		<stop busStop="-7395880287" duration="10" until="120.0"/> <!-- Vuosaarentie -->
		<stop busStop="433899532" duration="10" until="180.0"/> <!-- Punakiventie -->
		<stop busStop="-7395880289" duration="10" until="240.0"/> <!-- Lokkisaarentie -->
		<stop busStop="433899494" duration="10" until="300.0"/> <!-- Haapasaarentie -->
		<stop busStop="-7395880291" duration="10" until="360.0"/> <!-- Isonvillasaarentie -->
		<stop busStop="433727784" duration="10" until="420.0"/> <!-- Porslahdentie -->
		<stop busStop="433727701" duration="10" until="480.0"/> <!-- Porslahdentie -->
		<stop busStop="433727792" duration="10" until="540.0"/> <!-- Isonvillasaarentie -->
		<stop busStop="433344976" duration="10" until="600.0"/> <!-- Haapasaarentie -->
		<stop busStop="7395880288" duration="10" until="660.0"/> <!-- Lokkisaarentie -->
		<stop busStop="462094431" duration="10" until="720.0"/> <!-- Punakiventie -->
		<stop busStop="1109603802" duration="10" until="780.0"/> <!-- Vuosaarentie -->
		<stop busStop="411314560" duration="10" until="840.0"/> <!-- Mosaiikkitori -->
		<stop busStop="6329147757" duration="10" until="900.0"/> <!-- Vuosaari (M), laituri 14 -->
    </route>
    <route id="pt_bus_817:0" edges="-510188994#1 -510188994#0 -510188995 -4820181#4 -4820181#3 -4820181#2 -4820181#1 -4820181#0 -110436749#0 -147434940#1 -147434940#0 -284131393#6 -284131393#5 -284131393#4 -284131393#3 -284131393#2 -284131393#1 -110436746#4 -110436746#3 -110436746#2 -110436746#1 -110436746#0 -110436750#0 -126977702#1 -126977702#0 126977701 218176880 -110436741#4 -110436741#3 -110436741#2 -110436741#1 -110436741#0 -110436752#1 -110436752#0 419276342 42524428#1 42524428#2 128672146#0 128672146#1 128672146#2 128672146#3 128672146#4 128672146#5 128672146#6 128672146#8 201252986 182886295#1 129463692#0 129463692#1 182886418#1 182886420 4323863 201252985 284131374#0 284131374#1 284131373#2 35360594 284131372#0 284131372#1 65075527#0 65075527#1 65075525#0 65075525#1 65075525#2 -107896658 -107896656 -107899631#1 -107899631#0 -107899638 -107899637#0 4323841 981345472 107899615#1 4323842#0 4323842#1 4323842#2 4323842#3 284131364 107896664#1 107896654 42525028#3 107896658 42525027#0 42525027#1 63588540 107756084 63588543 53179702 107756078#0 107756078#1 130178876 130178877#0 130178877#1 -107756082 -175155171 -107612263#4 -107612263#3 -107612263#2 -107612263#1 -107612263#0 -45961438#0 986676796 45961437 511790420#0 23278363 986676791 195005702 45961436 -23278364#0 23278350 23278364#1 45961435 986676789 195005703 511790420#2 511790420#3 511790420#4 4323896 986676793 45961438#0 107612263#0 107612263#1 107612263#2 107612263#3 107612263#4 107612263#6 53179703 130178871#0 130178871#1 130178875#0 130178875#1 -53179702 -63588543 63588500 107756079 -465653482 -42525027#0 -107896658 -107896656 -107899631#1 -107899631#0 -107899638 -107899637#0 4323841 981345472 107899615#1 4323842#0 4323842#1 4323842#2 4323842#3 284131364 107896664#1 107896654 42525028#3 107896658 -65075525#2 -65075525#1 -65075525#0 65075526#0 65075526#1 -284131372#1 -284131372#0 -35360594 -284131373#2 -284131374#1 -284131374#0 -201252985 -4323863 -182886420 -182886418#1 -182886418#0 -129463692#0 -182886295#1 -182886295#0 -128672146#8 -128672146#6 -128672146#5 -128672146#4 -128672146#3 -128672146#2 -128672146#1 -128672146#0 -42524428#2 -42524428#1 -42524428#0 4820118#1 110436752#1 110436741#0 110436741#1 110436741#2 110436741#3 110436741#4 126977703 218176881 126977702#0 126977702#1 126977702#2 110436750#1 110436746#1 110436746#2 110436746#3 110436746#4 284131393#1 284131393#2 284131393#3 284131393#4 284131393#5 284131393#6 284131393#7 147434940#1 45316419#1 4820180 4820181#1 4820181#2 4820181#3 4820181#4 510188995 510188994#0 510188994#1 304400290" >
        <stop busStop="-510188994#1" duration="10" until="10.0"/> <!-- Rantapuisto -->
		<stop busStop="-284131393#6" duration="10" until="60.0"/> <!-- Verkkotie -->
		<stop busStop="8434272058" duration="10" until="120.0"/> <!-- Rysäkuja -->
		<stop busStop="6329149208" duration="10" until="180.0"/> <!-- Harbonkatu -->
		<stop busStop="2275921565" duration="10" until="240.0"/> <!-- Halkaisijantie -->
		<stop busStop="445090564" duration="10" until="300.0"/> <!-- Kallvikinniemi -->
		<stop busStop="445090546" duration="10" until="360.0"/> <!-- Vedenottamontie -->
		<stop busStop="9107504648" duration="10" until="420.0"/> <!-- Leikosaarenraitti -->
		<stop busStop="-107899638" duration="10" until="480.0"/> <!-- Hiekkalaiturinraitti -->
		<stop busStop="2917387583" duration="10" until="540.0"/> <!-- Kallahti -->
		<stop busStop="1239301965" duration="10" until="600.0"/> <!-- Hiekkajaalanpolku -->
		<stop busStop="683862484" duration="10" until="660.0"/> <!-- Kalkkihiekankuja -->
		<stop busStop="6329149204" duration="10" until="720.0"/> <!-- Iiluodontie -->
		<stop busStop="-107756082" duration="10" until="780.0"/> <!-- Leikonsaarentie -->
		<stop busStop="6990071590" duration="10" until="840.0"/> <!-- Vuosaari (M) -->
		<stop busStop="446025783" duration="10" until="900.0"/> <!-- Vuosaari (M), laituri 16 -->
		<stop busStop="107612263#2" duration="10" until="960.0"/> <!-- Leikonsaarentie -->
		<stop busStop="6329147756" duration="10" until="1020.0"/> <!-- Iiluodontie -->
		<stop busStop="9107504648" duration="10" until="1080.0"/> <!-- Leikosaarenraitti -->
		<stop busStop="-107899638" duration="10" until="1140.0"/> <!-- Hiekkalaiturinraitti -->
		<stop busStop="2917387583" duration="10" until="1200.0"/> <!-- Kallahti -->
		<stop busStop="1239301965" duration="10" until="1260.0"/> <!-- Hiekkajaalanpolku -->
		<stop busStop="683862484" duration="10" until="1320.0"/> <!-- Kalkkihiekankuja -->
		<stop busStop="-6329147755" duration="10" until="1380.0"/> <!-- Vedenottamontie -->
		<stop busStop="-445090567" duration="10" until="1440.0"/> <!-- Kallvikinniemi -->
		<stop busStop="-454176407" duration="10" until="1500.0"/> <!-- Halkaisijantie -->
		<stop busStop="-454172825" duration="10" until="1560.0"/> <!-- Harbonkatu -->
		<stop busStop="8434272059" duration="10" until="1620.0"/> <!-- Rysäkuja -->
		<stop busStop="284131393#7" duration="10" until="1680.0"/> <!-- Verkkotie -->
		<stop busStop="304400290" duration="10" until="1740.0"/> <!-- Rantapuisto -->
		</route>